0.01 FAVIVKAAE 0.925925
0.015 YRAVKKIQQ 0.910616
0.02 YLLLRKLAD 0.898011
0.025 FAMMDKNAD 0.888220
0.03 IKAAKKLIQ 0.879595
0.04 FEMAVKQLE 0.866091
0.05 FVSLGRPKA 0.853025
0.06 IAAAKKAQV 0.842467
0.07 FVTKIIRVD 0.828446
0.08 FAIVLKKVE 0.823192
0.09 YRTMTQQLD 0.819564
0.1 YIGIDRKTG 0.813638
0.125 FSAKKTRQE 0.797604
0.15 YEMLLKIKE 0.781893
0.175 FIKLGKGEE 0.771338
0.2 FKLLRAYRE 0.762784
0.25 YLSVSKFLT 0.744499
0.3 FIITKAERI 0.725238
0.4 IVEIAKAVH 0.697713
0.5 LVAVDRSHD 0.673029
0.6 LVYQKKYKD 0.651741
0.7 YKIKTVEGP 0.633595
0.8 YVRVKRGIY 0.618905
0.9 FVMQVKTFN 0.603186
1.0 LDAIIKGLE 0.589627
1.1 YVSIEKKLT 0.575086
1.2 YFSIPSNRV 0.561217
1.3 FRIRDIHPS 0.548670
1.4 YHARSNSSE 0.536984
1.5 FYATKNPWN 0.526869
1.6 IVHIGHFKA 0.518277
1.7 VLYVGKAKN 0.509965
1.8 IETFKTNQG 0.501401
1.9 YIIAAVGGG 0.493051
2 IIAIKDRKS 0.485342
2.5 FQLHSAALD 0.453666
3 YNFRFEISE 0.424356
3.5 IEADARAVA 0.397712
4 YVSATPGET 0.374717
4.5 YVVAYADYG 0.353101
5 FESRTKRME 0.335796
5.5 FVTTPTSGT 0.320182
6 LQILKIHTA 0.305396
6.5 IYVEPITEE 0.293141
7 VKLVIENYQ 0.281618
7.5 FSQKFGAVE 0.271097
8 FTIASHDMD 0.260125
8.5 IFVTFRLVN 0.250570
9 LVRVARYTT 0.241568
9.5 LVTYDSRGG 0.233276
10 FQLATGQLE 0.225237
11 WSRITNRRL 0.210356
12 VLLTGNGPS 0.197294
13 VVSHTSQVQ 0.185417
14 LSERGSLAD 0.175042
15 YKGWYIESV 0.164695
16 VFVAKPLRE 0.155631
17 LMTLAKGQS 0.147250
18 LARQKNEET 0.139593
19 YGCKVKVVS 0.132649
20 WSHINTVLQ 0.126239
21 IMDFKRHLK 0.120103
22 LTPKISFPW 0.114099
23 IAGASLLQG 0.109037
24 LRRTQRKRQ 0.103805
25 LKPVMKVME 0.099136
26 MKQVTDTGA 0.094439
27 FKPEEMNGI 0.090071
28 INGKWHLVS 0.086026
29 FIDLHSYSQ 0.082306
30 FNKASHKQQ 0.078756
31 FFGAKFQRN 0.075319
32 FVCLVGERE 0.072209
33 ITSTHKGSI 0.069153
34 LTAEYNSLA 0.066345
35 PVVLGKLGS 0.063519
36 ISSVLTATL 0.060774
37 LVGCARRLG 0.058316
38 LQAEIQSSQ 0.055678
39 LNLHQPSSE 0.053408
40 LQLEAQAQE 0.051182
41 LVANERTYT 0.049031
42 HQLMIKDQI 0.046913
43 LVEMILLYD 0.044892
44 IAPNIKRER 0.043033
45 LRQGIHLRG 0.041230
46 LSRKKRSRA 0.039446
47 QKITSDRFS 0.037804
48 LEALGASIE 0.036250
49 IIEWDPFNA 0.034719
50 IVTLGDTNL 0.033258
55 MAALNKDVP 0.026516
60 KLAAKVFRH 0.021220
65 ATAFAYEHF 0.016663
70 LSDSDLYYS 0.012901
75 WLKGGFIGV 0.009899
80 NRHDLAVEP 0.007370
85 IKDGLDTQE 0.005210
90 ICLMPVLPC 0.003406
95 LEMCPASVV 0.001839
